22
Coordinates from ORCA-job relax
  C   0.09647423368586      0.04656876110355      0.49426223028006
  C   1.39437258606636     -0.00410213081544     -0.00640289359295
  C   1.97315705462039      1.16381817709828     -0.49481348311995
  C   1.26394063035289      2.35076671222501     -0.49680214029898
  C   -0.02799472493972      2.39053795743092      0.00033718096222
  C   -0.60875507528420      1.23587013573839      0.49759677437559
  C   2.15166719469873     -1.26640880161323      0.00640285885890
  C   3.45455020704911     -1.30546186920915      0.49481346555561
  C   4.16798548617567     -2.48987939492648      0.49680213810852
  C   3.59498749521347     -3.64847858165605     -0.00033712068049
  C   2.30286720558380     -3.61740652159211     -0.49759675481069
  C   1.58547937247701     -2.43539939406984     -0.49426227058458
  H   3.89987307358784     -0.40407058397991      0.89112900743257
  H   5.17547978743621     -2.50964631122536      0.88673051836528
  H   4.15427113577338     -4.57252127946140     -0.00155881193004
  H   1.85402957876208     -4.51745070859771     -0.89248328360529
  H   0.58103661506671     -2.40994473927529     -0.89225742689613
  H   2.97806273220690      1.13246132806795     -0.89112906112084
  H   1.72070774636496      3.24898678211359     -0.88673052613643
  H   -0.58003752793452      3.31892464499107      0.00155889495932
  H   -1.61412653767876      1.26349184828497      0.89248332826311
  H   -0.35383826928420     -0.85163603063177      0.89225737561519
