22
Coordinates from ORCA-job relax
  C   0.65157490803856      0.37661387160409      1.10712217931931
  C   1.40967912699293      0.00465153780264     -0.00018177018998
  C   1.42935712551161      0.84348231832250     -1.11160248753299
  C   0.71502460709154      2.02716897838227     -1.11193598131008
  C   -0.03632612243623      2.38727402663637     -0.00580858191160
  C   -0.06707962660313      1.55767296246309      1.10259285282363
  C   2.16659505632692     -1.25702397164616      0.00018177978389
  C   2.91596077910254     -1.63448300485285      1.11160248839968
  C   3.62410999950202     -2.82187920880753      1.11193598135768
  C   3.58818622944399     -3.65429318042643      0.00580856921557
  C   2.84175089191970     -3.29095035635651     -1.10259285772521
  C   2.13795426047239     -2.10097757197799     -1.10712216747883
  H   2.95725176804992     -0.98104762061557      1.97125561926195
  H   4.20729490631607     -3.09942893329477      1.97817249058964
  H   4.13951059908004     -4.58309330551210      0.00774835222304
  H   2.80651990289633     -3.93927076618286     -1.96627227880771
  H   1.54512547571777     -1.82761048260531     -1.96821878615357
  H   2.02532057602902      0.57235444855660     -1.97125561166881
  H   0.74463497390007      2.67235244913088     -1.97817249206736
  H   -0.59631264131043      3.31087747578446     -0.00774835977550
  H   -0.65567779457668      1.83174008313421      1.96627226783189
  H   0.61373499853499     -0.27510974953897      1.96821879381536
