22
Coordinates from ORCA-job relax
  C   0.93425923752367      0.57845412791609      1.18642442057280
  C   1.35650028648811     -0.02440598040586     -0.00158238024540
  C   1.07515104629422      0.65539832256567     -1.18980162350803
  C   0.39444291479111      1.85792853018623     -1.19205493954283
  C   -0.02278171309112      2.43080947250322     -0.00378175656134
  C   0.25304356887041      1.78065698609806      1.18597566696420
  C   2.11592724769921     -1.29026709051635      0.00158235933403
  C   2.58329577336607     -1.85847297684344      1.18980159912782
  C   3.32389702664462     -3.02507155574038      1.19205494189890
  C   3.63297276454452     -3.66283419034777      0.00378176799637
  C   3.18916606342018     -3.11345867456568     -1.18597565516267
  C   2.44909249809994     -1.94656638197355     -1.18642442107051
  H   2.38240977406449     -1.38776771681141      2.13886316500668
  H   3.66646116721424     -3.43595540368739      2.13096615813625
  H   4.21306368731027     -4.57361279169107      0.00476330726301
  H   3.42249609999513     -3.59592267013640     -2.12433201037333
  H   2.11053769805197     -1.56526097524889     -2.13659034424344
  H   1.39590300600558      0.25660417317212     -2.13886320226004
  H   0.19315659010146      2.35356907142543     -2.13096615389387
  H   -0.55332785820478      3.37131142950392     -0.00476327644169
  H   -0.06281240132296      2.21361125661425      2.12433203318958
  H   1.11133552213359      0.10027303798322      2.13659034381349
