22
Coordinates from ORCA-job relax
  C   0.16706254586469      0.09700224520067      0.66585598750561
  C   1.37669564306961     -0.01180644769375     -0.01083730948618
  C   1.88957179564182      1.10230322962608     -0.66571399335847
  C   1.19090045240648      2.29607706593712     -0.66628516048979
  C   -0.01840563853169      2.39419909914877      0.00121756588269
  C   -0.52757917149939      1.29321595640534      0.66902748747045
  C   2.13654930046099     -1.27837857494244      0.01083601008090
  C   3.36093352625948     -1.35025509798242      0.66571202663948
  C   4.08535332485210     -2.52858171619911      0.66628606240033
  C   3.60273091614271     -3.64174167434842     -0.00121648894937
  C   2.39167193241989     -3.57277645094546     -0.66902761281511
  C   1.66320148746043     -2.39685758004276     -0.66585573150178
  H   3.73600691141558     -0.47887655326365      1.18364387463094
  H   5.03149967483764     -2.57763892181958      1.18570099138509
  H   4.17089817875109     -4.56039693702047     -0.00345995506164
  H   2.01562926547654     -4.43681186760951     -1.19762239743376
  H   0.71858112280752     -2.33906670922500     -1.18799826386328
  H   2.83493129301288      1.02309109307133     -1.18364704008299
  H   1.59294988630398      3.15395687831736     -1.18569818577806
  H   -0.56151350007467      3.32788822823586      0.00346207896931
  H   -1.46691744153000      1.36811586871863      1.19762125456083
  H   -0.22656150554773     -0.76364113356858      1.18799879929481
