22
Coordinates from ORCA-job relax
  C   0.44784992195132      0.24127685104374      0.96173233167544
  C   1.43179492046591      0.02209770623511      0.00467343267831
  C   1.65670481479344      0.98693977513898     -0.97043302454155
  C   0.92542778620811      2.16122925891794     -0.97391915035001
  C   -0.04719863621205      2.37685562781813     -0.01222979300559
  C   -0.28569728981591      1.41408435830252      0.95398680490226
  C   2.19239735110008     -1.24572268382831     -0.00467341428907
  C   3.14954189695521     -1.50141583652019      0.97043304015881
  C   3.84142452245628     -2.69933917244760      0.97391913998696
  C   3.57387655004504     -3.65898231501306      0.01222977504372
  C   2.61216310022304     -3.41625326813687     -0.95398681003337
  C   1.92265657816628     -2.21702446046149     -0.96173231682247
  H   3.35378184458522     -0.75127574208003      1.72131268283119
  H   4.58897616828828     -2.88633232994537      1.73126243726770
  H   4.11214185955192     -4.59547026815439      0.01721451829938
  H   2.39594873080531     -4.16534342760865     -1.70197576724288
  H   1.17043806054589     -2.02470687727731     -1.71368217026991
  H   2.41468806538120      0.81406542696174     -1.72131264278493
  H   1.11230071796645      2.90881095160858     -1.73126246217190
  H   -0.62011481293997      3.29255551356608     -0.01721454190736
  H   -1.04839026952882      1.57589947791285      1.70197576699906
  H   0.26347811900771     -0.51292856603238      1.71368216357621
