22
Coordinates from ORCA-job relax
  C   0.69837727484269      0.41560101275869      1.13579156396612
  C   1.37668333942775     -0.01548159611687     -0.00285357636765
  C   1.34930065472987      0.79306265572169     -1.13768209770453
  C   0.65692248635357      1.98947167707553     -1.13630255370424
  C   -0.02074157544495      2.40186794557341     -0.00140083800141
  C   0.00217577031753      1.60973333458306      1.13411389600459
  C   2.13330105073910     -1.27666001842287      0.00285357629074
  C   2.83379434337438     -1.68138558573696      1.13768208577099
  C   3.56350202944842     -2.85539954318147      1.13630255073969
  C   3.60839785892571     -3.64741192815090      0.00140083057582
  C   2.92028110304469     -3.25434984210611     -1.13411389129329
  C   2.19438169304621     -2.07803415615092     -1.13579154707938
  H   2.82465102729050     -1.05948985010813      2.02091479838311
  H   4.10374953773445     -3.15215439359784      2.02378450208932
  H   4.17784927312657     -4.56514814982480      0.00134269796937
  H   2.94978112246795     -3.86790779307514     -2.02306480196274
  H   1.64417453284769     -1.79146118598249     -2.02022692067424
  H   1.89369809551996      0.49228148244014     -2.02091481943231
  H   0.64937829640026      2.60581078067659     -2.02378450904736
  H   -0.56243433909920      3.33625739132839     -0.00134269974568
  H   -0.52528373010382      1.92455087672097      2.02306480850052
  H   0.69225015501061     -0.20473311442395      2.02022694472255
