22
Coordinates from ORCA-job relax
  C   0.08452191740409      0.03781294879509      0.45410345339236
  C   1.39955471282624     -0.00140912448844     -0.00235871909992
  C   1.98776983801477      1.17708821545897     -0.45431154993348
  C   1.27587691622317      2.36226483995816     -0.45664430921082
  C   -0.03114571967316      2.39044605254285      0.00011713979614
  C   -0.62373195329288      1.22515490910800      0.45692045869837
  C   2.15648236320149     -1.26310413599546      0.00235888203049
  C   3.47313637939037     -1.29881493169390      0.45431166162593
  C   4.18374853890809     -2.48475992773717      0.45664425065592
  C   3.59342333172296     -3.65121543855094     -0.00011724150704
  C   2.28636379875380     -3.62557719012880     -0.45692050157036
  C   1.57212834465073     -2.44182375244561     -0.45410336101121
  H   3.93278372891081     -0.39344456243241      0.82403159867017
  H   5.20232183983038     -2.49993766675750      0.81689455126775
  H   4.15015056090701     -4.57678330119423     -0.00056403518515
  H   1.82270760499140     -4.53191055814627     -0.81897362369945
  H   0.55712700659324     -2.42287539580692     -0.82438503015062
  H   3.00292855181199      1.15649701106563     -0.82403145558363
  H   1.74190775596458      3.26809988940612     -0.81689468125184
  H   -0.58573745854154      3.31729505828839      0.00056379614880
  H   -1.64162721497288      1.24266236178372      0.81897353808658
  H   -0.37650084362468     -0.86664530102927      0.82438517783100
