22
Coordinates from ORCA-job relax
  C   0.05143025618252      0.02123336116854      0.33555623631877
  C   1.40778885175436      0.00317222424491      0.01337206470087
  C   2.01915595904547      1.20761224756509     -0.33339956785881
  C   1.30486505826535      2.39085884246752     -0.33575733773443
  C   -0.03802781365414      2.39578891337923      0.00133348589310
  C   -0.66091461780288      1.20575911245555      0.33718241080149
  C   2.16440017583961     -1.25799544809948     -0.01337143007938
  C   3.51484071568970     -1.28548994797553      0.33340003834718
  C   4.22262134083868     -2.47264225425996      0.33575714222577
  C   3.59489816537874     -3.65980227641388     -0.00133406354312
  C   2.25174965026196     -3.64925431114292     -0.33718255529592
  C   1.54192450217775     -2.46321689805174     -0.33555584920720
  H   4.01114143439932     -0.37178054080902      0.62563036724001
  H   5.26817534892616     -2.47281527433982      0.60851928768978
  H   4.14803998627699     -4.58742519989384      0.00043495896471
  H   1.75357548146856     -4.57129745716985     -0.60034417556392
  H   0.50108567998337     -2.46866681864727     -0.62373042494913
  H   3.05892432994823      1.21543538757459     -0.62562957746546
  H   1.79683392390178      3.31343659248224     -0.60851974608186
  H   -0.59612040039223      3.32044172636419     -0.00043625693725
  H   -1.70891762853277      1.20020556367851      0.60034388176342
  H   -0.44328039995654     -0.89453754457705      0.62373111077138
