22
Coordinates from ORCA-job relax
  C   0.22873185679994      0.13108824065139      0.75681780532662
  C   1.38169908346717     -0.00730943563062     -0.00666759049200
  C   1.83191351237176      1.07173624242776     -0.75812737154779
  C   1.13029424197864      2.26402661831505     -0.75877886117633
  C   -0.02145600047349      2.39313507526346     -0.00105216470468
  C   -0.46991251723713      1.32522774980590      0.75762226288907
  C   2.14287231815328     -1.27608097521784      0.00666568228836
  C   3.30682518203048     -1.38673989534020      0.75812607240967
  C   4.02854906060952     -2.56696892100770      0.75877935915931
  C   3.60035609396851     -3.64393216878076      0.00105363073861
  C   2.44705825607785     -3.53696474533111     -0.75762165197516
  C   1.72230262056309     -2.35849010351002     -0.75681896209519
  H   3.63941591508688     -0.54319202357362      1.34637522930103
  H   4.92927217549642     -2.64581968841016      1.35025233788031
  H   4.16565774345681     -4.56436817631187      0.00027954771392
  H   2.11233199484489     -4.37346134137294     -1.35393601300509
  H   0.82197017944769     -2.27129237422040     -1.34847044767835
  H   2.73272271114612      0.96814159090327     -1.34637697492962
  H   1.48467632812861      3.09585222856972     -1.35025104780720
  H   -0.56748367847457      3.32513409371225     -0.00027666925205
  H   -1.36550541206761      1.42361938094369      1.35393718771173
  H   -0.11810166537489     -0.70432137188523      1.34846863924481
