22
Coordinates from ORCA-job relax
  C   0.04073660734479      0.01860314247763      0.29439171788733
  C   1.40788574366837      0.00340444002608      0.01830830793312
  C   2.02626909569871      1.21511555124894     -0.29175085808402
  C   1.31284957832933      2.39874885357900     -0.29361292628587
  C   -0.03957333049118      2.39934940226957      0.00230796098253
  C   -0.67147384090196      1.20311230967304      0.29595292571745
  C   2.16465063004621     -1.25801929067179     -0.01830792860925
  C   3.52480888070340     -1.28274561434081      0.29175110716699
  C   4.23334081924502     -2.46931111450368      0.29361285703118
  C   3.59731208933180     -3.66284178133273     -0.00230819349031
  C   2.24444435532474     -3.65732502489892     -0.29595297866209
  C   1.53457056367350     -2.47141402743999     -0.29439148178192
  H   4.03214799234759     -0.36700795786131      0.55643241112898
  H   5.28642344507230     -2.46375241463283      0.53568348358131
  H   4.15062274104883     -4.59032341796139     -0.00016992196927
  H   1.73766542423786     -4.58383452758448     -0.52482149983514
  H   0.48628165247434     -2.48684234696967     -0.55261814213261
  H   3.07302245300472      1.23172327413502     -0.55643218827998
  H   1.81341911778999      3.32527137894623     -0.53568367983133
  H   -0.59746174156981      3.32408470650368      0.00016932991585
  H   -1.72746762356715      1.19206890439680      0.52482128314891
  H   -0.46628465281144     -0.89904444505838      0.55261841446813
