22
Coordinates from ORCA-job relax
  C   0.02064981324033      0.01670651338235      0.20277915887725
  C   1.40522870378380      0.00275317770565      0.02386098240579
  C   2.03676998177059      1.22811405804548     -0.20063424466797
  C   1.32589237237679      2.41307878636143     -0.20088805738215
  C   -0.04286388231946      2.40814509820395      0.00417736251021
  C   -0.69058695667255      1.20162049213371      0.20457900568047
  C   2.16282540507689     -1.26005706765510     -0.02386069222508
  C   3.54122006603050     -1.27959876169191      0.20063442934229
  C   4.25212314436393     -2.46454820860013      0.20088800170094
  C   3.60352375568535     -3.66988501536494     -0.00417753703982
  C   2.23413196025843     -3.67348645276762     -0.20457904588658
  C   1.52344271618986     -2.48824399627030     -0.20277897828009
  H   4.07133537619598     -0.36068766958020      0.39846202928305
  H   5.31881321589000     -2.44718790384478      0.37277538826915
  H   4.15815685395321     -4.59648408791401     -0.00217203628467
  H   1.71317124361152     -4.60756402114358     -0.35879065196422
  H   0.46124762255699     -2.52522178336516     -0.38923666526142
  H   3.09704358142780      1.26332366322707     -0.39846187021971
  H   1.84327926384367      3.34605245068526     -0.37277554364353
  H   -0.59935112716202      3.33363181402522      0.00217158813135
  H   -1.75993313999512      1.18162657509924      0.35879049122787
  H   -0.51192997010650     -0.90306766067163      0.38923688542689
