22
Coordinates from ORCA-job relax
  C   0.07326989098486      0.03071542116419      0.41465051180402
  C   1.40366823924395      0.00079806199619      0.00255266753718
  C   2.00014125021845      1.18881335549891     -0.41416141284142
  C   1.28645883552703      2.37274719529117     -0.41672273871664
  C   -0.03392709445557      2.39126012139971      0.00018152174312
  C   -0.63723477150201      1.21657381331702      0.41695829494058
  C   2.16036592494105     -1.26051363547566     -0.00255238878522
  C   3.48930450171595     -1.29341839218072      0.41416160207808
  C   4.19797787785871     -2.48035730535669      0.41672264454060
  C   3.59283246578557     -3.65405261334596     -0.00018171658260
  C   2.27243715395530     -3.63345180940670     -0.41695836900490
  C   1.56057005260845     -2.44841078092480     -0.41465034451570
  H   3.96211174379435     -0.38479845192833      0.75803282463353
  H   5.22643756287325     -2.49088507742985      0.74791346567583
  H   4.14761034874220     -4.58076478385601      0.00020513308355
  H   1.79565007234211     -4.54544265315177     -0.74631876040265
  H   0.53617117378145     -2.43664576740460     -0.75790600457362
  H   3.02436118576788      1.17830365555392     -0.75803256455265
  H   1.76124568858900      3.28511637857861     -0.74791367094240
  H   -0.59044599095686      3.31692780711743     -0.00020555977701
  H   -1.66630210495450      1.22515870484998      0.74631860642570
  H   -0.39851400686067     -0.87865324430604      0.75790625823261
