22
Coordinates from ORCA-job relax
  C   0.74891986708221      0.45568600816411      1.15825982496238
  C   1.34449813341944     -0.03437568226324     -0.00415640908222
  C   1.26488183677616      0.74456499589672     -1.15866616070921
  C   0.59386604316054      1.95287742821576     -1.15675247230876
  C   -0.00603733050440      2.41743856866523      0.00117055061861
  C   0.07501646651306      1.66225716166274      1.15867491970913
  C   2.10148178033903     -1.29616408470767      0.00415640056847
  C   2.75127040224545     -1.73304174952067      1.15866614155904
  C   3.50153534784274     -2.89381030652614      1.15675247094224
  C   3.62905686435886     -3.64176710652952     -0.00117055398205
  C   3.00090773009850     -3.21480415390445     -1.15867491131344
  C   2.25353820428384     -2.05230746657671     -1.15825980758519
  H   2.69054604863479     -1.14808993912842      2.06415807176838
  H   3.99621164773261     -3.21266072650846      2.06297817691437
  H   4.21601208045944     -4.54833014736844     -0.00238933398735
  H   3.09584210935883     -3.78999272063368     -2.06848860456649
  H   1.74920777086121     -1.75135121480374     -2.06449386053507
  H   1.75240531875673      0.41566244569494     -2.06415810704192
  H   0.54537737568422      2.53940882105625     -2.06297818183050
  H   -0.52963325676274      3.36201269538221      0.00238934183536
  H   -0.38779090280532      2.01674800047976      2.06848861935706
  H   0.77707646246472     -0.13094082674654      2.06449388470717
