22
Coordinates from ORCA-job relax
  C   0.00266493795600      0.01821891391051      0.00000019461489
  C   1.40033394974957      0.00224467799560      0.00000030679704
  C   2.04409381951118      1.24293258777548      0.00000019993640
  C   1.33412835852958      2.42838409558986     -0.00000006945679
  C   -0.04934860896612      2.41864222796291     -0.00000022785262
  C   -0.70909558250347      1.20260906877179     -0.00000007125406
  C   2.16004675166285     -1.26415203077943      0.00000031820446
  C   3.55771573558505     -1.28012600823189      0.00000021803310
  C   4.26947623896540     -2.46451623313039     -0.00000006532442
  C   3.60972947696904     -3.68054951274148     -0.00000023841544
  C   2.22625251396863     -3.69029153919358     -0.00000005892415
  C   1.51628711025163     -2.50484004561582      0.00000021730263
  H   4.11780727720312     -0.35892855787082      0.00000026783389
  H   5.34971551030204     -2.43569409498033     -0.00000019853055
  H   4.16523606466131     -4.60649868362391     -0.00000050310476
  H   1.69245565827604     -4.62986435672011     -0.00000018514922
  H   0.43988347225327     -2.56546501598389      0.00000026741074
  H   3.12049745921549      1.30355763062227      0.00000025025837
  H   1.86792544641492      3.36795678838369     -0.00000019450082
  H   -0.60485456659897      3.34459176875680     -0.00000047154186
  H   -1.78933482750245      1.17378709783808     -0.00000019661792
  H   -0.55742619590412     -0.90297877873534      0.00000024028111
