22
Coordinates from ORCA-job relax
  C   0.86687201574541      0.53631936302431      1.18183169405572
  C   1.33322881906529     -0.03915284603869     -0.00264700181583
  C   1.12578290284138      0.67765322573590     -1.18370338736033
  C   0.46142159778682      1.88936562123826     -1.18442987328057
  C   -0.00663630888807      2.43342474759602     -0.00133617317789
  C   0.20144770741334      1.74734059052869      1.18226360114336
  C   2.09196275540334     -1.30385841728475      0.00264637045768
  C   2.62676253658689     -1.82427485530527      1.18370296380800
  C   3.38315943898406     -2.98077241360029      1.18443001854040
  C   3.64287963743937     -3.64981995202754      0.00133661385916
  C   3.13548595532855     -3.14330091070367     -1.18226339191440
  C   2.38019919154203     -1.98619078201246     -1.18183204579839
  H   2.47129861449690     -1.31744389700070      2.12303045849940
  H   3.77944171808046     -3.35751703023345      2.11648789734961
  H   4.23581513287107     -4.55233475612309      0.00126462754833
  H   3.33178674277768     -3.65122999487890     -2.11562996789319
  H   1.98070995625605     -1.63874538027318     -2.12179505617663
  H   1.49978812312579      0.30193199496986     -2.12303098993219
  H   0.31554041723537      2.41633365075134     -2.11648750037321
  H   -0.52384559907024      3.38136990779779     -0.00126382440645
  H   -0.15430483429256      2.15960951310709      2.11563039877363
  H   0.98539347927100      0.02031262073275      2.12179456809379
