22
Coordinates from ORCA-job relax
  C   0.49139594535686      0.26556160511626      0.99389937907144
  C   1.43886633743959      0.02553669949743      0.00510208659333
  C   1.61951252894048      0.96580467605012     -1.00306609283318
  C   0.88426766366043      2.13746167600476     -1.00678062783701
  C   -0.05057123303340      2.37425880404690     -0.01305891677558
  C   -0.24698493469583      1.43518400189221      0.98547598475680
  C   2.19875996052564     -1.24110221402561     -0.00510210990239
  C   3.11338864597621     -1.52428283474786      1.00306607407408
  C   3.80108105580830     -2.72446793759659      1.00678060822326
  C   3.56999796117020     -3.66073568912257      0.01305892137840
  C   2.64900051975688     -3.39202842650668     -0.98547595399048
  C   1.96457935471907     -2.19003402153623     -0.99389937624262
  H   3.28953240882401     -0.79240446584359      1.77868908084762
  H   4.51655832240156     -2.93193108696154      1.78936382699082
  H   4.10448810917266     -4.59937419219961      0.01843899474689
  H   2.46026933156166     -4.12340485778669     -1.75803570919022
  H   1.24331745256726     -1.97814427536527     -1.77050919925290
  H   2.34815907357695      0.77673641223524     -1.77868908150547
  H   1.03798303637908      2.86637884304149     -1.78936386128854
  H   -0.62716175583984      3.28764006297912     -0.01843897791716
  H   -0.98111321617447      1.61291012533902      1.75803576515321
  H   0.33886343190663     -0.47054290451031      1.77050918489972
