22
Coordinates from ORCA-job relax
  C   0.12532617896692      0.06885965987726      0.57773603952184
  C   1.38323122227416     -0.00953726146569     -0.01108180304201
  C   1.93658002945014      1.13390830268397     -0.57799802373646
  C   1.23384131517956      2.32501242933060     -0.57914324292090
  C   -0.02174842050154      2.39243166180899      0.00116531367788
  C   -0.57313684077160      1.26249111949243      0.58161505513852
  C   2.14162772778943     -1.27368064403176      0.01108145545818
  C   3.41094441018232     -1.32365592180834      0.57799796993469
  C   4.13109515168546     -2.50431406656414      0.57914332938745
  C   3.59959824057745     -3.64385882299673     -0.00116499575830
  C   2.34311977464372     -3.59851048500543     -0.58161492742654
  C   1.61872686132407     -2.42043511555362     -0.57773644511150
  H   3.82370907125841     -0.43372483416146      1.03165929939995
  H   5.11196742451169     -2.53518672074435      1.03121836315259
  H   4.16451623899044     -4.56449203659200     -0.00346077440839
  H   1.92842228341736     -4.48324363165768     -1.04280002457091
  H   0.64009496206110     -2.38155641350131     -1.03490802961722
  H   2.91604970579121      1.07921929346699     -1.03165964311579
  H   1.66827924863119      3.20497105952127     -1.03121831060251
  H   -0.56813099073548      3.32418481908713      0.00346136139248
  H   -1.54893012172008      1.31302819232743      1.04280040431588
  H   -0.30099347300595     -0.81289058351357      1.03490762893109
