22
Coordinates from ORCA-job relax
  C   0.77965948371350      0.47814681797617      1.16748264029314
  C   1.33279165328041     -0.04090086400125     -0.00410627466412
  C   1.22049452772904      0.72147105556266     -1.16777081335095
  C   0.55716538787092      1.93392505110334     -1.16625455214496
  C   -0.00139702774325      2.42456904232132      0.00132447532066
  C   0.11403089509979      1.68918838664538      1.16840522447479
  C   2.09021457828997     -1.30342148725042      0.00410626459337
  C   2.71000229902074     -1.76133498878003      1.16777079548511
  C   3.46753932182514     -2.91727092966904      1.16625455249151
  C   3.63753220839154     -3.64102912048529     -0.00132447648135
  C   3.04303256978868     -3.19305756533817     -1.16840521524146
  C   2.28782399044929     -2.03575764162494     -1.16748262708164
  H   2.62145683534436     -1.19844928142582      2.08448268767811
  H   3.93561044325983     -3.25053264010418      2.08140163677574
  H   4.23079951894132     -4.54342741697970     -0.00258723736658
  H   3.17101364085179     -3.74728575517287     -2.08715070993533
  H   1.81092110694561     -1.72465101933820     -2.08473040695187
  H   1.67545415653454      0.37840791295575     -2.08448272139749
  H   0.48343905065999      2.50376569966821     -2.08140163927933
  H   -0.51834740840297      3.37275209113046      0.00258724511093
  H   -0.31472862537934      2.06297081456785      2.08715072648695
  H   0.82968139352904     -0.08905816176121      2.08473042518479
