22
Coordinates from ORCA-job relax
  C   0.65146530336216      0.37656628109716      1.10709039344459
  C   1.40957658069051      0.00458486592816     -0.00019335010719
  C   1.42939255554460      0.84350689645094     -1.11152706069319
  C   0.71512653912854      2.02723212747247     -1.11185101445071
  C   -0.03631633582700      2.38732183700781     -0.00576737528263
  C   -0.06714881273666      1.55765625267101      1.10258286717240
  C   2.16648796858282     -1.25708306533203      0.00019335944225
  C   2.91599916788870     -1.63446329381720      1.11152705126225
  C   3.62421372789865     -2.82181897309861      1.11185100423125
  C   3.58823303657743     -3.65430703857581      0.00576736279003
  C   2.84170357823027     -3.29100354132552     -1.10258286168212
  C   2.13786066973003     -2.10105188742713     -1.10709037158369
  H   2.95732843824373     -0.98105206011639      1.97120313076578
  H   4.20749415890914     -3.09926871118409      1.97805337389531
  H   4.13958012171138     -4.58308843888603      0.00770864702036
  H   2.80640206116739     -3.93932717567773     -1.96625672207081
  H   1.54504885472486     -1.82774727935938     -1.96822341283009
  H   2.02535270131157      0.57242416329828     -1.97120314180096
  H   0.74487006533781      2.67245280831295     -1.97805339354579
  H   -0.59627564738881      3.31093651148535     -0.00770865428340
  H   -0.65578300694890      1.83166267029826      1.96625672962984
  H   0.61357827386172     -0.27511294922245      1.96822343867651
