22
Coordinates from ORCA-job relax
  C   1.02248212808160      0.63202404147507      1.18819788079394
  C   1.40030523679062      0.00224451164770     -0.00105601199578
  C   1.02407843520343      0.62892002211267     -1.19245751751442
  C   0.31336159873173      1.81393102369508     -1.19551332603797
  C   -0.04915487452608      2.41868442522007     -0.00517689468244
  C   0.31174867286511      1.81703279226974      1.18720539991102
  C   2.16005920155852     -1.26416167110889      0.00105601146892
  C   2.53589493135415     -1.89107179102722      1.19245751094695
  C   3.24691444137723     -3.07590121108612      1.19551332657017
  C   3.60986150080030     -3.68039629433320      0.00517689507680
  C   3.24889199071997     -3.07878423251273     -1.18720540015478
  C   2.53788228873883     -1.89394120892576     -1.18819787483239
  H   2.27674793327857     -1.45975869716144      2.14593663298464
  H   3.51920158821850     -3.53015497713406      2.13745356167957
  H   4.16570056770401     -4.60615211121252      0.00675072023924
  H   3.52272066833594     -3.53533391445593     -2.12759271437715
  H   2.28057335577317     -1.46475150966063     -2.14313226170956
  H   1.28265230975295      0.19726310197688     -2.14593664044543
  H   0.04073189822758      2.26797928272845     -2.13745356123384
  H   -0.60433035266735      3.34483835041409     -0.00675071939856
  H   0.03781883028881      2.27352178330760      2.12759271434149
  H   1.28004764939231      0.20298828377124      2.14313226836956
