22
Coordinates from ORCA-job relax
  C   0.26751488140233      0.15041626595005      0.80176768407634
  C   1.38935499417639     -0.00226193946019     -0.00397683635008
  C   1.79971947376797      1.05683881379254     -0.80466587088761
  C   1.09340015890038      2.24644581048535     -0.80572993329487
  C   -0.02568100134902      2.39095667639514     -0.00324284472542
  C   -0.43667988463692      1.34134676301037      0.80079159674171
  C   2.15092912951388     -1.27170198232672      0.00397667651245
  C   3.27852825665701     -1.40813346241024      0.80466578522101
  C   3.99567263070237     -2.59124618524856      0.80572998349061
  C   3.59644588519980     -3.64663429847149      0.00324290348914
  C   2.47692198729524     -3.51522970458339     -0.80079159595094
  C   1.75760984778016     -2.33336853459388     -0.80176775528032
  H   3.58805152959377     -0.58171882495993      1.42872850125918
  H   4.86946405670097     -2.68950087941015      1.43356930052771
  H   4.15754179008209     -4.56964558928033      0.00368130290925
  H   2.16367953020430     -4.33559084798089     -1.43026384411294
  H   0.88337670290427     -2.22722153644513     -1.42840302793842
  H   2.67455479984437      0.94095549497265     -1.42872860162618
  H   1.41798597532354      3.06364197640317     -1.43356918089864
  H   -0.57596078681240      3.32045687199826     -0.00368119977466
  H   -1.30792467029989      1.45109944126441      1.43026393770231
  H   -0.05031528695064     -0.67088432910108      1.42840301891037
