22
Coordinates from ORCA-job relax
  C   0.02060515711364      0.01670965992201      0.20286915590739
  C   1.40516343987570      0.00270488183955      0.02390843375573
  C   2.03674886022043      1.22801353468797     -0.20076553357087
  C   1.32593699453485      2.41303789659330     -0.20097621653611
  C   -0.04281027233106      2.40818220531198      0.00418117057561
  C   -0.69055818880267      1.20167483484737      0.20473142178136
  C   2.16275207185691     -1.26009192035327     -0.02390814272142
  C   3.54112142996030     -1.27957009198552      0.20076571105670
  C   4.25210806157854     -2.46448960543643      0.20097615375474
  C   3.60358171258961     -3.66985519001386     -0.00418134531834
  C   2.23419342980579     -3.67348665123937     -0.20473145536611
  C   1.52342446207349     -2.48828487696926     -0.20286896752148
  H   4.07124287343692     -0.36067016165655      0.39861391115062
  H   5.31877719002049     -2.44703312095154      0.37299680337214
  H   4.15824246084109     -4.59643275437272     -0.00213287141010
  H   1.71325029219668     -4.60756632859367     -0.35901838191546
  H   0.46124519884103     -2.52539743054742     -0.38948320394454
  H   3.09701549780338      1.26323379736751     -0.39861376481240
  H   1.84339889017588      3.34594781075342     -0.37299697133736
  H   -0.59926551800268      3.33368319817091      0.00213242219186
  H   -1.75989795809345      1.18169742338755      0.35901823330108
  H   -0.51208608569487     -0.90298711076198      0.38948343760699
