22
Coordinates from ORCA-job relax
  C   0.72247112199172      0.43518354139348      1.14773093883750
  C   1.35978300462842     -0.02551018447025     -0.00371437770523
  C   1.30773377249206      0.76847752505314     -1.14868714912505
  C   0.62658144775324      1.97120435045975     -1.14685126607920
  C   -0.01287708967869      2.40971428176485      0.00020446761734
  C   0.03792616054283      1.63588700388596      1.14724611056948
  C   2.11649812206734     -1.28685099557240      0.00371440742946
  C   2.79253808279596     -1.70648849467751      1.14868714786742
  C   3.53310377238861     -2.87357151438898      1.14685125149680
  C   3.61902236128727     -3.64416618638259     -0.00020449390022
  C   2.96018355016634     -3.23511714547954     -1.14724610715226
  C   2.22299989119721     -2.06599316714523     -1.14773090109991
  H   2.75800167425241     -1.10210074393754      2.04307504978248
  H   4.05136745788578     -3.18061804054798      2.04390762616555
  H   4.19768770362737     -4.55608466332420     -0.00098805647984
  H   3.02233372664755     -3.83003218358289     -2.04713454184326
  H   1.69477682698784     -1.77279839131193     -2.04310476015837
  H   1.82473182789040      0.45353255745494     -2.04307504406547
  H   0.59960951206320      2.57299111725446     -2.04390765029405
  H   -0.54510002449810      3.34949491378194      0.00098799943297
  H   -0.45771684275344      1.97073709113542      2.04713453469624
  H   0.73253394026462     -0.16887067136289      2.04310481400762
