22
Coordinates from ORCA-job relax
  C   0.08469363083080      0.03785536805566      0.45424447437251
  C   1.39967066128978     -0.00133526323704     -0.00228032763466
  C   1.98767186447414      1.17712511043701     -0.45448048604778
  C   1.27570344735230      2.36227375081959     -0.45685831338942
  C   -0.03125379424671      2.39047669592778      0.00008943467160
  C   -0.62365553115961      1.22516087186366      0.45708843902198
  C   2.15660210351339     -1.26303660064261      0.00228048786545
  C   3.47312281731627     -1.29891874633758      0.45448058827870
  C   4.18367474542927     -2.48491718476037      0.45685824821947
  C   3.59339948413974     -3.65132522597086     -0.00008953432003
  C   2.28640501220346     -3.62551257365720     -0.45708847374471
  C   1.57224658228232     -2.44169221539863     -0.45424437627211
  H   3.93296268489867     -0.39361616041811      0.82416696094877
  H   5.20216979951084     -2.50010371184271      0.81733084624940
  H   4.15005607444853     -4.57692762265654     -0.00051108759290
  H   1.82268994835422     -4.53172707926255     -0.81935608706364
  H   0.55725428374078     -2.42281997236328     -0.82457559590428
  H   3.00286138482027      1.15673566328381     -0.82416683338454
  H   1.74168970671603      3.26804389597641     -0.81733098739143
  H   -0.58590924595548      3.31727963419242      0.00051085243363
  H   -1.64147362664592      1.24256044350949      0.81935601602427
  H   -0.37639203331313     -0.86655907751834      0.82457575465974
