22
Coordinates from ORCA-job relax
  C   0.01200217995899      0.01700101907866      0.14778492552418
  C   1.40309548574657      0.00230974898452      0.02214958971581
  C   2.04044114143838      1.23423653278116     -0.14666145142986
  C   1.33048337304711      2.41973014144559     -0.14606434322241
  C   -0.04512468191283      2.41281944721572      0.00433500910188
  C   -0.69901958652630      1.20196555964909      0.14965256644546
  C   2.16143010313563     -1.26173051168236     -0.02214938264249
  C   3.54834987913513     -1.27924141772346      0.14666155557358
  C   4.26015253998960     -2.46362823134236      0.14606429241723
  C   3.60658382559901     -3.67407985826746     -0.00433512916655
  C   2.23046731813049     -3.68108901452056     -0.14965258434768
  C   1.51963226923745     -2.49601246518197     -0.14778476795036
  H   4.09084237112114     -0.35923260047467      0.29808096010102
  H   5.33293863005207     -2.44073958551907      0.27379411667445
  H   4.16184572191735     -4.60024545062981     -0.00282806071182
  H   1.70357073220638     -4.61799600827877     -0.26058366471586
  H   0.45106459764131     -2.54378639386695     -0.28735280344349
  H   3.10750896599491      1.27984990394656     -0.29808086533581
  H   1.85561716077664      3.35548030458201     -0.27379423033701
  H   -0.60093341964931      3.33865697433229      0.00282773506272
  H   -1.77365606918582      1.17806608173711      0.26058356162337
  H   -0.53310253785392     -0.90331417626527      0.28735297106365
