22
Coordinates from ORCA-job relax
  C   0.81752145653909      0.50416677034305      1.17538101094083
  C   1.32754975834606     -0.04336846899887     -0.00357900029561
  C   1.17423773818746      0.69925337905325     -1.17614749875838
  C   0.51415740056360      1.91338943411178     -1.17552133945708
  C   -0.00071054475679      2.43036700856882      0.00050264687590
  C   0.15576006119054      1.71724057127557      1.17632223772570
  C   2.08557013300857     -1.30688498183767      0.00357902747718
  C   2.66862740692431     -1.79169013925261      1.17614750542612
  C   3.42917766863468     -2.94555135621329      1.17552132731231
  C   3.64297089469581     -3.64315242234777     -0.00050267030554
  C   3.08742419577454     -3.16944335061670     -1.17632224191395
  C   2.32860236436354     -2.01459893217519     -1.17538097823403
  H   2.54928292225664     -1.25445221068614      2.10424263085476
  H   3.86556318497228     -3.29737536164598      2.09935424553859
  H   4.23904348522373     -4.54364973445018     -0.00138700196146
  H   3.24899017801919     -3.70130113890321     -2.10297949452064
  H   1.88523203189611     -1.68901963530486     -2.10393522432269
  H   1.59207175210496      0.34108801838119     -2.10424262909271
  H   0.40913969322754      2.46401063326374     -2.09935426974590
  H   -0.51466330570620      3.38013040370464      0.00138697009253
  H   -0.23745423088716      2.11012581270851      2.10297948255325
  H   0.89609575542143     -0.04026429897808      2.10393526381080
