22
Coordinates from ORCA-job relax
  C   0.62626155928251      0.35624662522762      1.08988046864177
  C   1.42325513294572      0.01322646279991      0.00136796843619
  C   1.46825719272951      0.86891937366904     -1.09574591196922
  C   0.74484617192066      2.04723270718744     -1.09709130139957
  C   -0.04280177889804      2.38134647844793     -0.00814783487067
  C   -0.10158727867000      1.53182451256120      1.08393811269841
  C   2.18055070105899     -1.24908185682045     -0.00136795408239
  C   2.95671348081131     -1.61213404451173      1.09574591651939
  C   3.65584872879487     -2.80501112479343      1.09709129843738
  C   3.57990836671369     -3.65721669903961      0.00814781805024
  C   2.80270263195516     -3.30923024077671     -1.08393811852818
  C   2.10806966118242     -2.11372518106568     -1.08988045083679
  H   3.02373516602384     -0.94378692513089      1.94235613000503
  H   4.26173402870326     -3.07206882543300      1.95094209356344
  H   4.12365347300982     -4.59049195588227      0.01117542702473
  H   2.73540156254480     -3.97412237114757     -1.93297628476306
  H   1.49306897511731     -1.84839895536687     -1.93796631275490
  H   2.08948825918627      0.61347514100890     -1.94235611439865
  H   0.79439831755423      2.70750643402177     -1.95094209950098
  H   -0.61030413847345      3.30036906608248     -0.01117544250857
  H   -0.71990149808934      1.78539605640494      1.93297626832005
  H   0.57089128459641     -0.31125467744295      1.93796632391636
