22
Coordinates from ORCA-job relax
  C   0.16709312266106      0.09705574238254      0.66588732273079
  C   1.37672031995042     -0.01180033327390     -0.01081377870955
  C   1.88950556497677      1.10231034809706     -0.66576551479746
  C   1.19084518705532      2.29608958081483     -0.66631759992293
  C   -0.01842695987384      2.39424728147512      0.00124000655942
  C   -0.52756426771635      1.29325228837306      0.66907549703263
  C   2.13656648447924     -1.27835957813733      0.01081192113183
  C   3.36091278828596     -1.35031421216659      0.66575384830526
  C   4.08533731392879     -2.52863685881557      0.66631938417640
  C   3.60276339880978     -3.64178351275217     -0.00123843799007
  C   2.39171200660363     -3.57277998814071     -0.66907625363846
  C   1.66325919221567     -2.39685840101912     -0.66587834659385
  H   3.73598874457047     -0.47897109145268      1.18375320374538
  H   5.03146366740179     -2.57768217446295      1.18577413509651
  H   4.17092052830602     -4.56044195221713     -0.00348304347543
  H   2.01566983623212     -4.43678553300458     -1.19772156213667
  H   0.71864605227734     -2.33907623681031     -1.18805052306833
  H   2.83483755367782      1.02311884448466     -1.18376188473423
  H   1.59289968676797      3.15394898557386     -1.18576268458004
  H   -0.56154221138891      3.32792906282799      0.00348623392864
  H   -1.46688010608083      1.36813643093984      1.19771268539771
  H   -0.22653790314028     -0.76357869271594      1.18805539154243
