22
Coordinates from ORCA-job relax
  C   0.12520235727398      0.06881758149731      0.57768701882133
  C   1.38311748478791     -0.00959965264685     -0.01110622159918
  C   1.93664711263883      1.13382973454382     -0.57790686307383
  C   1.23397380245050      2.32496906816409     -0.57905300465278
  C   -0.02164999336312      2.39241149980909      0.00118220814699
  C   -0.57316809989910      1.26250758249880      0.58155846277761
  C   2.14151915855548     -1.27375163704474      0.01110586439885
  C   3.41090670831500     -1.32355971832141      0.57790671315592
  C   4.13111925467837     -2.50417675486958      0.57905310096560
  C   3.59962679349621     -3.64376248040759     -0.00118188691811
  C   2.34311961061027     -3.59854580817974     -0.58155834236816
  C   1.61863142567271     -2.42052458309406     -0.57768734241093
  H   3.82357081601276     -0.43356247937540      1.03151310764023
  H   5.11202420323828     -2.53501398014683      1.03105768962498
  H   4.16461411758174     -4.56435734517837     -0.00348977495352
  H   1.92848228299768     -4.48334124907020     -1.04267745686403
  H   0.63997166622642     -2.38166896943273     -1.03478449235269
  H   2.91612787828262      1.07902091697193     -1.03151344534656
  H   1.66845839927253      3.20493986944356     -1.03105756813336
  H   -0.56796610147269      3.32420777034523      0.00349036906239
  H   -1.54898804725733      1.31312703604920      1.04267778275500
  H   -0.30115083009907     -0.81294640155552      1.03478408132424
