22
Coordinates from ORCA-job relax
  C   0.19513687719632      0.11334504125104      0.71126077790938
  C   1.37743797924719     -0.01055546577949     -0.00907002621623
  C   1.86192335240298      1.08678883530906     -0.71156352332483
  C   1.16290565515879      2.28048816362538     -0.71204638227743
  C   -0.01897198705385      2.39424104534849      0.00048544997468
  C   -0.50028381915913      1.30924685217574      0.71349767819685
  C   2.13800264419412     -1.27831276522196      0.00906877466673
  C   3.33423126059124     -1.36734727526832      0.71156266000669
  C   4.05842285374661     -2.54594405294182      0.71204683567524
  C   3.60250123675506     -3.64226095978440     -0.00048444349727
  C   2.41866310825041     -3.55623926913019     -0.71349738447055
  C   1.69083508809402     -2.37977952808573     -0.71126156423682
  H   3.68861376813571     -0.50873191044820      1.26422526824296
  H   4.98328676523446     -2.60826306499374      1.26713201349164
  H   4.17018774092870     -4.56121886137046     -0.00218119917708
  H   2.06305289980952     -4.40734631585922     -1.27610275313270
  H   0.76698395113390     -2.30881479142852     -1.26781399908813
  H   2.78628366557429      0.99532895060993     -1.26422648721321
  H   1.54323629380048      3.12583187704313     -1.26713113383366
  H   -0.56257314466403      3.32764844127744      0.00218316617083
  H   -1.41859731387457      1.39608953606385      1.27610348777764
  H   -0.17708887550224     -0.73517448239201      1.26781278435528
